Info: SIMULATION PARAMETERS:
Info: TIMESTEP               2
Info: NUMBER OF STEPS        11000000
Info: STEPS PER CYCLE        20
Info: PERIODIC CELL BASIS 1  38.36 0 0
Info: PERIODIC CELL BASIS 2  0 38.36 0
Info: PERIODIC CELL BASIS 3  0 0 38.36
Info: PERIODIC CELL CENTER   0 0 0
Info: WRAPPING ALL CLUSTERS AROUND PERIODIC BOUNDARIES ON OUTPUT.
Info: WRAPPING TO IMAGE NEAREST TO PERIODIC CELL CENTER.
Info: FIRST LDB TIMESTEP     100
Info: LAST LDB TIMESTEP     -1
Info: HOM BACKGROUND SCALING 1
Info: PME BACKGROUND SCALING 1
Info: MIN ATOMS PER PATCH    40
Info: INITIAL TEMPERATURE    303.15
Info: CENTER OF MASS MOVING INITIALLY? NO
Info: DIELECTRIC             1
Info: EXCLUDE                SCALED ONE-FOUR
Info: 1-4 ELECTROSTATICS SCALED BY 1
Info: MODIFIED 1-4 VDW PARAMETERS WILL BE USED
Info: DCD FILENAME           step2-namdequil/equil.oct1.1.dcd
Info: DCD FREQUENCY          10000
Info: DCD FIRST STEP         10000
Info: DCD FILE WILL CONTAIN UNIT CELL DATA
Info: NO EXTENDED SYSTEM TRAJECTORY OUTPUT
Info: NO VELOCITY DCD OUTPUT
Info: NO FORCE DCD OUTPUT
Info: OUTPUT FILENAME        step2-namdequil/equil.oct1.1.output
Info: BINARY OUTPUT FILES WILL BE USED
Info: NO RESTART FILE
Info: SWITCHING ACTIVE
Info: SWITCHING ON           10
Info: SWITCHING OFF          12
Info: PAIRLIST DISTANCE      16
Info: PAIRLIST SHRINK RATE   0.01
Info: PAIRLIST GROW RATE     0.01
Info: PAIRLIST TRIGGER       0.3
Info: PAIRLISTS PER CYCLE    2
Info: PAIRLISTS ENABLED
Info: MARGIN                 0.555
Info: HYDROGEN GROUP CUTOFF  2.5
Info: PATCH DIMENSION        19.055
Info: ENERGY OUTPUT STEPS    10000
Info: CROSSTERM ENERGY INCLUDED IN DIHEDRAL
Info: TIMING OUTPUT STEPS    10000
Info: LANGEVIN DYNAMICS ACTIVE
Info: LANGEVIN TEMPERATURE   303.15
Info: LANGEVIN USING BBK INTEGRATOR
Info: LANGEVIN DAMPING COEFFICIENT IS 5 INVERSE PS
Info: LANGEVIN DYNAMICS NOT APPLIED TO HYDROGENS
Info: LANGEVIN PISTON PRESSURE CONTROL ACTIVE
Info:        TARGET PRESSURE IS 1.01325 BAR
Info:     OSCILLATION PERIOD IS 200 FS
Info:             DECAY TIME IS 100 FS
Info:     PISTON TEMPERATURE IS 303.15 K
Info:       PRESSURE CONTROL IS GROUP-BASED
Info:    INITIAL STRAIN RATE IS 0 0 0
Info:       CELL FLUCTUATION IS ISOTROPIC
Info: PARTICLE MESH EWALD (PME) ACTIVE
Info: PME TOLERANCE               1e-06
Info: PME EWALD COEFFICIENT       0.257952
Info: PME INTERPOLATION ORDER     6
Info: PME GRID DIMENSIONS         40 40 40
Info: PME MAXIMUM GRID SPACING    1
Info: FULL ELECTROSTATIC EVALUATION FREQUENCY      1
Info: USING VERLET I (r-RESPA) MTS SCHEME.
Info: C1 SPLITTING OF LONG RANGE ELECTROSTATICS
Info: PLACING ATOMS IN PATCHES BY HYDROGEN GROUPS
Info: RIGID BONDS TO HYDROGEN : ALL
Info:         ERROR TOLERANCE : 1e-08
Info:          MAX ITERATIONS : 100
Info: RIGID WATER USING SETTLE ALGORITHM
Info: RANDOM NUMBER SEED     1666732163
Info: USE HYDROGEN BONDS?    NO
Info: COORDINATE PDB         ./step1-boxequil/oct1.box.1.pdb
Info: STRUCTURE FILE         ./oct1.box.psf
Info: PARAMETER file: CHARMM format!
Info: PARAMETERS             ./toppar/par_all36m_prot.prm
Info: PARAMETERS             ./toppar/par_all36_na.prm
Info: PARAMETERS             ./toppar/par_all36_lipid.prm
Info: PARAMETERS             ./toppar/par_all36_carb.prm
Info: PARAMETERS             ./toppar/par_all36_cgenff.prm
Info: PARAMETERS             ./toppar/oct1_cgenff.str
Info: USING ARITHMETIC MEAN TO COMBINE L-J SIGMA PARAMETERS
Info: SKIPPING rtf SECTION IN STREAM FILE
Info: SUMMARY OF PARAMETERS:
Info: 950 BONDS
Info: 2798 ANGLES
Info: 6874 DIHEDRAL
Info: 196 IMPROPER
Info: 6 CROSSTERM
Info: 340 VDW
Info: 8 VDW_PAIRS
Info: 0 NBTHOLE_PAIRS
Info: LONG-RANGE LJ: APPLYING ANALYTICAL CORRECTIONS TO ENERGY AND PRESSURE
Info: LONG-RANGE LJ: AVERAGE A AND B COEFFICIENTS 153976 AND 122.243
Info: STRUCTURE SUMMARY:
Info: 5832 ATOMS
Info: 5616 BONDS
Info: 10584 ANGLES
Info: 14256 DIHEDRALS
Info: 0 IMPROPERS
Info: 0 CROSSTERMS
Info: 0 EXCLUSIONS
Info: 3888 RIGID BONDS
Info: 13608 DEGREES OF FREEDOM
Info: 1944 HYDROGEN GROUPS
Info: 4 ATOMS IN LARGEST HYDROGEN GROUP
Info: 1944 MIGRATION GROUPS
Info: 4 ATOMS IN LARGEST MIGRATION GROUP
Info: TOTAL MASS = 28130 amu
Info: TOTAL CHARGE = 1.36793e-05 e
Info: MASS DENSITY = 0.827547 g/cm^3
Info: ATOM DENSITY = 0.103319 atoms/A^3
Info: ADDED 30456 IMPLICIT EXCLUSIONS
Info: NONBONDED TABLE R-SQUARED SPACING: 0.0625
Info: NONBONDED TABLE SIZE: 769 POINTS
Info: REMOVING COM VELOCITY 0.0791352 0.0769538 0.0596025
TCL: Original numsteps 11000000 will be ignored.
TCL: Minimizing for 1000 steps
ETITLE: TS BOND ANGLE DIHED IMPRP ELECT VDW BOUNDARY MISC KINETIC TOTAL TEMP POTENTIAL TOTAL3 TEMPAVG PRESSURE GPRESSURE VOLUME PRESSAVG GPRESSAVG
ENERGY: 0 407.4784 2755.7809 1463.8960 0.0000 37.2683 -2649.2130 0.0000 0.0000 0.0000 2015.2106 0.0000 2015.2106 2015.2106 0.0000 545.8548 -3300.7095 56446.3411 545.8548 -3300.7095
ENERGY: 200 34.5614 197.2468 1075.4808 0.0000 -213.0335 -2988.1291 0.0000 0.0000 0.0000 -1893.8736 0.0000 -1893.8736 -1893.8736 0.0000 -314.9581 -164.0001 56446.3411 -314.9581 -164.0001
ENERGY: 400 17.3936 170.7873 1029.7588 0.0000 -252.0663 -3007.0164 0.0000 0.0000 0.0000 -2041.1430 0.0000 -2041.1430 -2041.1430 0.0000 -300.1561 -276.5675 56446.3411 -300.1561 -276.5675
ENERGY: 600 16.7839 169.0742 1016.9472 0.0000 -268.7713 -3012.1097 0.0000 0.0000 0.0000 -2078.0757 0.0000 -2078.0757 -2078.0757 0.0000 -202.2776 -230.1136 56446.3411 -202.2776 -230.1136
ENERGY: 800 16.7694 167.2984 1013.3586 0.0000 -273.3388 -3020.6001 0.0000 0.0000 0.0000 -2096.5127 0.0000 -2096.5127 -2096.5127 0.0000 -230.0967 -223.8663 56446.3411 -230.0967 -223.8663
ENERGY: 1000 16.6593 166.3618 1007.6375 0.0000 -281.9076 -3022.7139 0.0000 0.0000 0.0000 -2113.9628 0.0000 -2113.9628 -2113.9628 0.0000 -152.2524 -145.3299 56446.3411 -152.2524 -145.3299
TCL: Running for 11000000 steps
ETITLE: TS BOND ANGLE DIHED IMPRP ELECT VDW BOUNDARY MISC KINETIC TOTAL TEMP POTENTIAL TOTAL3 TEMPAVG PRESSURE GPRESSURE VOLUME PRESSAVG GPRESSAVG
ENERGY: 10000 427.8895 2797.7793 1506.0577 0.0000 13.6228 -2592.6499 0.0000 0.0000 4038.9988 6191.6983 298.7238 2152.6994 6236.2916 289.9901 1041.3415 1034.8625 56583.7111 1.1002 1.2957
ENERGY: 2210000 457.3366 2808.4587 1450.5960 0.0000 -67.7538 -2560.9631 0.0000 0.0000 4196.8733 6284.5478 310.4002 2087.6744 6337.7280 302.7102 -1289.4081 -1248.7782 57343.6034 1.7030 1.9495
ENERGY: 4410000 445.0783 2781.8008 1449.6869 0.0000 -128.4980 -2564.2537 0.0000 0.0000 4219.8745 6203.6889 312.1013 1983.8144 6252.3507 302.5638 -331.6884 -286.4617 56736.5471 3.7433 3.7692
ENERGY: 6600000 424.4011 2846.9438 1452.3524 0.0000 -31.9260 -2614.7053 0.0000 0.0000 4031.6964 6108.7625 298.1837 2077.0661 6154.3275 302.0420 386.9660 388.9241 56810.6855 1.2460 1.2240
ENERGY: 8800000 462.8508 2863.2190 1488.4926 0.0000 -68.6301 -2565.0824 0.0000 0.0000 4104.6387 6285.4887 303.5785 2180.8500 6336.8841 303.6924 -799.3644 -833.2177 56997.1834 3.7024 3.9374
ENERGY: 11000000 433.8653 2819.3785 1481.1127 0.0000 -119.8352 -2566.3497 0.0000 0.0000 4091.2565 6139.4282 302.5888 2048.1717 6187.5684 301.9328 -819.3683 -773.1042 56955.9211 -0.4690 -0.3920
